Circuit: * D:\Archivos\Documentos\Universidad y colegio\UVG\2022\Primer Semestre\Electrónica analógica 1\Proyectos\Proyecto - Ecualizador 10 bandas\LTSPICE\Ecualizador de 10 bandas.asc

Early termination of direct N-R iteration.
Direct Newton iteration failed to find .op point.  (Use ".option noopiter" to skip.)
Starting Gmin stepping
Gmin = 10
Gmin = 1.07374
Gmin = 0.115292
Gmin = 0.0123794
